version 2
1
9
.tran 1u 1m{return}{return}{return}.kicad adjustpaths{return}.save all{return}.probe alli
1
1
V(Net-_R2-Pad2_)
 
